ANIMSTEPS 1
CRYSTAL
PRIMVEC 1
 39.00000000000000 0.00000000000000 0.00000000000000
 0.00000000000000 3.00000000000000 0.00000000000000
 0.00000000000000 0.00000000000000 15.00000000000000
PRIMCOORD 1
 12 1
  6     0.00000000000000     0.00000000000000     7.50000000000000
  6     3.00000000000000     0.00000000000000     7.50000000000000
  6     6.00000000000000     0.00000000000000     7.50000000000000
 16    10.00000000000000     0.00000000000000     7.50000000000000
 16    14.00000000000000     0.00000000000000     7.50000000000000
 16    18.00000000000000     0.00000000000000     7.50000000000000
 16    22.00000000000000     0.00000000000000     7.50000000000000
 16    26.00000000000000     0.00000000000000     7.50000000000000
 16    30.00000000000000     0.00000000000000     7.50000000000000
  6    33.00000000000000     0.00000000000000     7.50000000000000
  6    36.00000000000000     0.00000000000000     7.50000000000000
  6    39.00000000000000     0.00000000000000     7.50000000000000
